Version 4
SHEET 1 1620 952
WIRE -144 96 -192 96
WIRE -48 96 -80 96
WIRE -16 96 -48 96
WIRE 112 96 64 96
WIRE 192 96 112 96
WIRE 320 96 272 96
WIRE 784 96 736 96
WIRE 880 96 848 96
WIRE 912 96 880 96
WIRE 1040 96 992 96
WIRE 1120 96 1040 96
WIRE 1248 96 1200 96
WIRE 1536 96 1344 96
WIRE -192 144 -192 96
WIRE 736 144 736 96
WIRE 1424 176 1424 160
WIRE 1104 192 1104 176
WIRE 1344 192 1344 96
WIRE 1392 192 1344 192
WIRE 176 208 176 192
WIRE 1040 208 1040 96
WIRE 1072 208 1040 208
WIRE 1536 208 1536 96
WIRE 1536 208 1456 208
WIRE 1584 208 1536 208
WIRE 112 224 112 96
WIRE 144 224 112 224
WIRE 1248 224 1248 96
WIRE 1248 224 1136 224
WIRE 1392 224 1248 224
WIRE 320 240 320 96
WIRE 320 240 208 240
WIRE 368 240 320 240
WIRE 464 240 432 240
WIRE 512 240 464 240
WIRE 816 240 784 240
WIRE 928 240 880 240
WIRE 1040 240 928 240
WIRE 1072 240 1040 240
WIRE -96 256 -192 256
WIRE 32 256 -16 256
WIRE 112 256 32 256
WIRE 144 256 112 256
WIRE 1424 256 1424 240
WIRE 1104 272 1104 256
WIRE 176 288 176 272
WIRE 928 336 928 240
WIRE 1040 336 1040 240
WIRE -112 352 -208 352
WIRE 32 352 32 256
WIRE 32 352 -48 352
WIRE -208 384 -208 352
WIRE 112 384 112 256
WIRE 464 384 464 240
WIRE 928 496 928 416
WIRE -208 512 -208 464
WIRE 112 512 112 464
WIRE 464 512 464 464
WIRE 1040 512 1040 416
WIRE -224 800 -224 784
WIRE -144 800 -144 784
WIRE -224 896 -224 880
WIRE -144 896 -144 880
FLAG -144 896 0
FLAG -144 784 5V
FLAG 176 192 5V
FLAG 176 288 0
FLAG -224 896 0
FLAG -224 784 2V5
FLAG 112 512 0
FLAG -208 512 0
FLAG -192 256 5V
FLAG 1040 512 0
FLAG 928 496 5V
FLAG 1104 272 0
FLAG 1104 176 5V
FLAG 1424 160 5V
FLAG 1424 256 0
FLAG -48 96 IC
FLAG 880 96 IC
FLAG -192 144 0
FLAG 736 144 0
FLAG 512 240 ES2_Filter
FLAG 784 240 ES2_Filter
FLAG 464 512 0
SYMBOL res 80 80 R90
WINDOW 0 0 56 VBottom 2
WINDOW 3 32 56 VTop 2
SYMATTR InstName RG1
SYMATTR Value 200k
SYMBOL res 288 80 R90
WINDOW 0 0 56 VBottom 2
WINDOW 3 32 56 VTop 2
SYMATTR InstName RF1
SYMATTR Value 10k
SYMBOL voltage -144 784 R0
WINDOW 123 0 0 Left 0
WINDOW 39 0 0 Left 0
SYMATTR InstName V1
SYMATTR Value 5
SYMBOL voltage -224 784 R0
WINDOW 123 0 0 Left 0
WINDOW 39 0 0 Left 0
SYMATTR InstName V2
SYMATTR Value 2.5
SYMBOL res 0 240 R90
WINDOW 0 0 56 VBottom 2
WINDOW 3 32 56 VTop 2
SYMATTR InstName R3
SYMATTR Value 10k
SYMBOL MCP6001 176 176 R0
SYMATTR InstName U1
SYMBOL res 128 480 R180
WINDOW 0 36 76 Left 2
WINDOW 3 36 40 Left 2
SYMATTR InstName R4
SYMATTR Value 10k
SYMBOL cap -48 336 R90
WINDOW 0 15 56 VBottom 2
WINDOW 3 37 30 VTop 2
SYMATTR InstName C1
SYMATTR Value {C}
SYMBOL voltage -208 368 M0
WINDOW 3 20 98 Left 2
WINDOW 123 46 51 Left 2
WINDOW 39 0 0 Left 0
SYMATTR Value SINE(0 2 5k)
SYMATTR Value2 AC 1
SYMATTR InstName V3
SYMBOL cap -80 80 R90
WINDOW 0 0 32 VBottom 2
WINDOW 3 32 32 VTop 2
SYMATTR InstName C2
SYMATTR Value {C}
SYMBOL res 1056 432 R180
WINDOW 0 36 76 Left 2
WINDOW 3 36 40 Left 2
SYMATTR InstName R5
SYMATTR Value 10k
SYMBOL res 944 432 R180
WINDOW 0 36 76 Left 2
WINDOW 3 36 40 Left 2
SYMATTR InstName R6
SYMATTR Value 10k
SYMBOL cap 848 80 R90
WINDOW 0 0 32 VBottom 2
WINDOW 3 32 32 VTop 2
SYMATTR InstName C4
SYMATTR Value {C}
SYMBOL res 1008 80 R90
WINDOW 0 0 56 VBottom 2
WINDOW 3 32 56 VTop 2
SYMATTR InstName RG2
SYMATTR Value 200k
SYMBOL res 1216 80 R90
WINDOW 0 0 56 VBottom 2
WINDOW 3 32 56 VTop 2
SYMATTR InstName RF2
SYMATTR Value 10k
SYMBOL cap 880 224 R90
WINDOW 0 0 32 VBottom 2
WINDOW 3 32 32 VTop 2
SYMATTR InstName C3
SYMATTR Value {C}
SYMBOL MCP6001 1104 160 R0
SYMATTR InstName U2
SYMBOL MCP6001 1424 144 R0
SYMATTR InstName U3
SYMBOL cap 432 224 R90
WINDOW 0 0 32 VBottom 2
WINDOW 3 32 32 VTop 2
SYMATTR InstName C6
SYMATTR Value 10µF
SYMBOL res 448 368 R0
SYMATTR InstName R1
SYMATTR Value 100k
TEXT 320 808 Left 2 !.ac dec 20 1 1Meg
TEXT 24 784 Left 2 !.inc MCP6001.lib
TEXT 24 808 Left 2 !.param C=10uF
TEXT 320 776 Left 2 ;.ac dec 20 1 1Meg
TEXT -256 704 Left 2 ;Power Supplies
TEXT 24 704 Left 2 ;Extras
TEXT 320 704 Left 2 ;Simulations
TEXT 648 704 Left 2 ;Formulas
TEXT 648 776 Left 2 ;Vout = Vin * [(RF + RG)/RG] + (Vcc/2) * [(RF+RG)/RG]
TEXT 24 848 Left 2 !.ic V(IC) = 0
TEXT 24 880 Left 2 !.options ptrantau=1u\n.option cshunt=1e-12\n.option gmin=1e-10 abstol=1e-10 reltol=0.003
TEXT 320 744 Left 2 ;.tran 0 100ms 0 100
