Version 4
SHEET 1 1620 952
WIRE -144 96 -208 96
WIRE -48 96 -80 96
WIRE -16 96 -48 96
WIRE 112 96 64 96
WIRE 192 96 112 96
WIRE 320 96 272 96
WIRE 688 96 640 96
WIRE 784 96 752 96
WIRE 816 96 784 96
WIRE 944 96 896 96
WIRE 1024 96 944 96
WIRE 1152 96 1104 96
WIRE 1472 96 1280 96
WIRE -208 144 -208 96
WIRE 640 144 640 96
WIRE 1360 176 1360 160
WIRE 1008 192 1008 176
WIRE 1280 192 1280 96
WIRE 1328 192 1280 192
WIRE 176 208 176 192
WIRE 944 208 944 96
WIRE 976 208 944 208
WIRE 1472 208 1472 96
WIRE 1472 208 1392 208
WIRE 1616 208 1472 208
WIRE 112 224 112 96
WIRE 144 224 112 224
WIRE 1152 224 1152 96
WIRE 1152 224 1040 224
WIRE 1328 224 1152 224
WIRE 320 240 320 96
WIRE 320 240 208 240
WIRE 352 240 320 240
WIRE 432 240 416 240
WIRE 464 240 432 240
WIRE 720 240 688 240
WIRE 832 240 784 240
WIRE 944 240 832 240
WIRE 976 240 944 240
WIRE -96 256 -192 256
WIRE 32 256 -16 256
WIRE 112 256 32 256
WIRE 144 256 112 256
WIRE 1360 256 1360 240
WIRE 1008 272 1008 256
WIRE 176 288 176 272
WIRE 832 336 832 240
WIRE 944 336 944 240
WIRE -112 352 -208 352
WIRE 32 352 32 256
WIRE 32 352 -48 352
WIRE -208 384 -208 352
WIRE 112 384 112 256
WIRE 432 384 432 240
WIRE 832 496 832 416
WIRE -208 512 -208 464
WIRE 112 512 112 464
WIRE 432 512 432 464
WIRE 944 512 944 416
WIRE -224 800 -224 784
WIRE -144 800 -144 784
WIRE -224 896 -224 880
WIRE -144 896 -144 880
FLAG -144 896 0
FLAG -144 784 5V
FLAG 176 192 5V
FLAG 176 288 0
FLAG -224 896 0
FLAG -224 784 2V5
FLAG 112 512 0
FLAG -208 512 0
FLAG -192 256 5V
FLAG 944 512 0
FLAG 832 496 5V
FLAG 1008 272 0
FLAG 1008 176 5V
FLAG 1360 160 5V
FLAG 1360 256 0
FLAG -48 96 IC
FLAG 784 96 IC
FLAG -208 144 0
FLAG 640 144 0
FLAG 464 240 ES2_Filter
FLAG 688 240 ES2_Filter
FLAG 432 512 0
SYMBOL res 80 80 R90
WINDOW 0 0 56 VBottom 2
WINDOW 3 32 56 VTop 2
SYMATTR InstName RG1
SYMATTR Value 200k
SYMBOL res 288 80 R90
WINDOW 0 0 56 VBottom 2
WINDOW 3 32 56 VTop 2
SYMATTR InstName RF1
SYMATTR Value 10k
SYMBOL voltage -144 784 R0
WINDOW 123 0 0 Left 0
WINDOW 39 0 0 Left 0
SYMATTR InstName V1
SYMATTR Value 5
SYMBOL voltage -224 784 R0
WINDOW 123 0 0 Left 0
WINDOW 39 0 0 Left 0
SYMATTR InstName V2
SYMATTR Value 2.5
SYMBOL res 0 240 R90
WINDOW 0 0 56 VBottom 2
WINDOW 3 32 56 VTop 2
SYMATTR InstName R3
SYMATTR Value 10k
SYMBOL MCP6001 176 176 R0
SYMATTR InstName U1
SYMBOL res 128 480 R180
WINDOW 0 36 76 Left 2
WINDOW 3 36 40 Left 2
SYMATTR InstName R4
SYMATTR Value 10k
SYMBOL cap -48 336 R90
WINDOW 0 15 56 VBottom 2
WINDOW 3 37 30 VTop 2
SYMATTR InstName C1
SYMATTR Value {C}
SYMBOL voltage -208 368 M0
WINDOW 3 20 98 Left 2
WINDOW 123 46 51 Left 2
WINDOW 39 0 0 Left 0
SYMATTR Value SINE(0 2 5k)
SYMATTR Value2 AC 1
SYMATTR InstName V3
SYMBOL cap -80 80 R90
WINDOW 0 0 32 VBottom 2
WINDOW 3 32 32 VTop 2
SYMATTR InstName C2
SYMATTR Value {C}
SYMBOL res 960 432 R180
WINDOW 0 36 76 Left 2
WINDOW 3 36 40 Left 2
SYMATTR InstName R5
SYMATTR Value 10k
SYMBOL res 848 432 R180
WINDOW 0 36 76 Left 2
WINDOW 3 36 40 Left 2
SYMATTR InstName R6
SYMATTR Value 10k
SYMBOL cap 752 80 R90
WINDOW 0 0 32 VBottom 2
WINDOW 3 32 32 VTop 2
SYMATTR InstName C4
SYMATTR Value {C}
SYMBOL res 912 80 R90
WINDOW 0 0 56 VBottom 2
WINDOW 3 32 56 VTop 2
SYMATTR InstName RG2
SYMATTR Value 200k
SYMBOL res 1120 80 R90
WINDOW 0 0 56 VBottom 2
WINDOW 3 32 56 VTop 2
SYMATTR InstName RF2
SYMATTR Value 10k
SYMBOL cap 784 224 R90
WINDOW 0 0 32 VBottom 2
WINDOW 3 32 32 VTop 2
SYMATTR InstName C3
SYMATTR Value {C}
SYMBOL MCP6001 1008 160 R0
SYMATTR InstName U2
SYMBOL MCP6001 1360 144 R0
SYMATTR InstName U3
SYMBOL cap 416 224 R90
WINDOW 0 0 32 VBottom 2
WINDOW 3 32 32 VTop 2
SYMATTR InstName C6
SYMATTR Value 10µF
SYMBOL res 416 368 R0
SYMATTR InstName R1
SYMATTR Value 100k
TEXT 320 808 Left 2 !.ac dec 20 1 1Meg
TEXT 24 784 Left 2 !.inc MCP6001.lib
TEXT 24 808 Left 2 !.param C=10uF
TEXT 320 776 Left 2 ;.ac dec 20 1 1Meg
TEXT -256 704 Left 2 ;Power Supplies
TEXT 24 704 Left 2 ;Extras
TEXT 320 704 Left 2 ;Simulations
TEXT 648 704 Left 2 ;Formulas
TEXT 648 776 Left 2 ;Vout = Vin * [(RF + RG)/RG] + (Vcc/2) * [(RF+RG)/RG]
TEXT 24 848 Left 2 !.ic V(IC) = 0
TEXT 24 880 Left 2 !.options ptrantau=1u\n.option cshunt=1e-12\n.option gmin=1e-10 abstol=1e-10 reltol=0.003
