Version 4
SHEET 1 880 680
WIRE -336 48 -336 32
WIRE -256 48 -256 32
WIRE -64 96 -80 96
WIRE 16 96 0 96
WIRE 224 96 96 96
WIRE 320 96 304 96
WIRE -336 144 -336 128
WIRE -256 144 -256 128
WIRE 320 144 112 144
WIRE 176 208 176 192
WIRE 112 224 112 144
WIRE 144 224 112 224
WIRE 320 240 320 144
WIRE 320 240 208 240
WIRE 336 240 320 240
WIRE -64 256 -96 256
WIRE 32 256 16 256
WIRE 112 256 32 256
WIRE 144 256 112 256
WIRE 112 288 112 256
WIRE 176 288 176 272
WIRE -160 320 -160 304
WIRE -304 384 -304 368
WIRE -272 384 -304 384
WIRE -160 384 -192 384
WIRE -112 384 -160 384
WIRE 32 384 32 256
WIRE 32 384 -48 384
WIRE 112 384 112 368
WIRE -304 416 -304 384
WIRE -160 416 -160 384
WIRE -304 512 -304 496
FLAG -256 144 0
FLAG -256 32 5V
FLAG 176 192 5V
FLAG 176 288 0
FLAG -336 144 0
FLAG -336 32 2V5
FLAG 336 240 vout
FLAG 112 384 0
FLAG -304 512 0
FLAG -304 368 vin
FLAG -80 96 0
FLAG -96 256 5V
FLAG -160 480 0
FLAG -160 304 5V
SYMBOL res 112 80 R90
WINDOW 0 0 56 VBottom 2
WINDOW 3 32 56 VTop 2
SYMATTR InstName R1
SYMATTR Value 10k
SYMBOL res 320 80 R90
WINDOW 0 0 56 VBottom 2
WINDOW 3 32 56 VTop 2
SYMATTR InstName R2
SYMATTR Value 10k
SYMBOL voltage -256 32 R0
WINDOW 123 0 0 Left 0
WINDOW 39 0 0 Left 0
SYMATTR InstName V1
SYMATTR Value 5
SYMBOL voltage -336 32 R0
WINDOW 123 0 0 Left 0
WINDOW 39 0 0 Left 0
SYMATTR InstName V2
SYMATTR Value 2.5
SYMBOL res 32 240 R90
WINDOW 0 0 56 VBottom 2
WINDOW 3 32 56 VTop 2
SYMATTR InstName R3
SYMATTR Value 10k
SYMBOL MCP6001 176 176 R0
SYMATTR InstName U1
SYMBOL res 128 384 R180
WINDOW 0 36 76 Left 2
WINDOW 3 36 40 Left 2
SYMATTR InstName R4
SYMATTR Value 10k
SYMBOL cap -48 368 R90
WINDOW 0 0 32 VBottom 2
WINDOW 3 32 32 VTop 2
SYMATTR InstName C1
SYMATTR Value {C}
SYMBOL voltage -304 400 M0
WINDOW 3 24 152 Left 2
WINDOW 123 24 124 Left 2
WINDOW 39 0 0 Left 0
SYMATTR Value SINE(2 1 1k)
SYMATTR Value2 AC 1
SYMATTR InstName V3
SYMBOL cap 0 80 R90
WINDOW 0 0 32 VBottom 2
WINDOW 3 32 32 VTop 2
SYMATTR InstName C2
SYMATTR Value {C}
SYMBOL schottky -144 480 R180
WINDOW 0 24 64 Left 2
WINDOW 3 24 0 Left 2
SYMATTR InstName D1
SYMATTR Value BAT54
SYMATTR Description Diode
SYMATTR Type diode
SYMBOL res -176 368 R90
WINDOW 0 0 56 VBottom 2
WINDOW 3 32 56 VTop 2
SYMATTR InstName R5
SYMATTR Value 100
SYMBOL schottky -144 384 R180
WINDOW 0 24 64 Left 2
WINDOW 3 -66 67 Left 2
SYMATTR InstName D2
SYMATTR Value BAT54
SYMATTR Description Diode
SYMATTR Type diode
TEXT -608 400 Left 2 !.tran 1000ms
TEXT 208 400 Left 2 !.inc MCP6001.lib
TEXT 208 424 Left 2 !.param C=100uF
TEXT -608 368 Left 2 ;.ac dec 20 1 1Meg
TEXT -640 40 Left 2 !.lib MCP6001.asy
